/*--------------------------------*- C++ -*----------------------------------*\
| =========                 |                                                 |
| \\      /  F ield         | OpenFOAM: The Open Source CFD Toolbox           |
|  \\    /   O peration     | Version:  2206                                  |
|   \\  /    A nd           | Website:  www.openfoam.com                      |
|    \\/     M anipulation  |                                                 |
\*---------------------------------------------------------------------------*/
FoamFile
{
    version     2.0;
    format      ascii;
    arch        "LSB;label=32;scalar=64";
    class       polyBoundaryMesh;
    location    "constant/polyMesh";
    object      boundary;
}
// * * * * * * * * * * * * * * * * * * * * * * * * * * * * * * * * * * * * * //

5
(
    Side
    {
        type            empty;
        nFaces          23819;
        startFace       24972;
    }
    Inlet
    {
        type            patch;
        nFaces          118;
        startFace       48791;
    }
    Airfoil
    {
        type            wall;
        nFaces          73;
        startFace       48909;
    }
    Outlet
    {
        type            patch;
        nFaces          209;
        startFace       48982;
    }
    defaultFaces
    {
        type            patch;
        nFaces          1353;
        startFace       49191;
    }
)

// ************************************************************************* //
